<?xml version="1.0" encoding="UTF-8"?>

<!-- generated on 2025-05-03 09:17:31 by Eclipse SUMO duarouter Version 1.18.0
<configuration xmlns:xsi="http://www.w3.org/2001/XMLSchema-instance" xsi:noNamespaceSchemaLocation="http://sumo.dlr.de/xsd/duarouterConfiguration.xsd">

    <input>
        <net-file value="complex_map.net.xml"/>
        <route-files value="trips.trips.xml"/>
    </input>

    <output>
        <output-file value="complex_map.rou.xml"/>
    </output>

</configuration>
-->

<routes xmlns:xsi="http://www.w3.org/2001/XMLSchema-instance" xsi:noNamespaceSchemaLocation="http://sumo.dlr.de/xsd/routes_file.xsd">
    <person id="0" depart="0.00">
        <walk edges="edge_31 edge_55 edge_79 edge_95 edge_203 edge_102"/>
    </person>
    <vehicle id="0" depart="0.00" departLane="best" departPos="random" departSpeed="max">
        <route edges="edge_30 edge_54 edge_78 edge_195 edge_100"/>
    </vehicle>
    <vehicle id="1" depart="0.08" departLane="best" departPos="random" departSpeed="max">
        <route edges="edge_149 edge_40 edge_66 edge_86 edge_98 edge_202 edge_95 edge_79 edge_55 edge_31 edge_138"/>
    </vehicle>
    <person id="1" depart="0.10">
        <walk edges="edge_15 edge_14"/>
    </person>
    <vehicle id="2" depart="0.17" departLane="best" departPos="random" departSpeed="max">
        <route edges="edge_49 edge_24 edge_177 edge_175 edge_173 edge_171 edge_39 edge_38"/>
    </vehicle>
    <person id="2" depart="0.20">
        <walk edges="edge_79 edge_76 edge_52 edge_26 edge_4 edge_114"/>
    </person>
    <vehicle id="3" depart="0.25" departLane="best" departPos="random" departSpeed="max">
        <route edges="edge_79 edge_181 edge_53 edge_27 edge_3 edge_112"/>
    </vehicle>
    <person id="3" depart="0.30">
        <walk edges="edge_177 edge_51 edge_74 edge_92 edge_108 edge_103"/>
    </person>
    <vehicle id="4" depart="0.33" departLane="best" departPos="random" departSpeed="max">
        <route edges="edge_177 edge_70 edge_88 edge_92 edge_101"/>
    </vehicle>
    <person id="4" depart="0.40">
        <walk edges="edge_102 edge_203 edge_95 edge_79 edge_55 edge_29 edge_135"/>
    </person>
    <vehicle id="5" depart="0.42" departLane="best" departPos="random" departSpeed="max">
        <route edges="edge_138 edge_139 edge_30 edge_54 edge_78 edge_195 edge_89 edge_192"/>
    </vehicle>
    <person id="5" depart="0.50">
        <walk edges="edge_115 edge_116"/>
    </person>
    <vehicle id="6" depart="0.50" departLane="best" departPos="random" departSpeed="max">
        <route edges="edge_101 edge_91 edge_178 edge_53 edge_27 edge_133"/>
    </vehicle>
    <vehicle id="7" depart="0.58" departLane="best" departPos="random" departSpeed="max">
        <route edges="edge_32 edge_161 edge_29 edge_135 edge_3 edge_2"/>
    </vehicle>
    <person id="6" depart="0.60">
        <walk edges="edge_70 edge_177 edge_24"/>
    </person>
    <vehicle id="8" depart="0.67" departLane="best" departPos="random" departSpeed="max">
        <route edges="edge_139 edge_30 edge_54 edge_78 edge_94 edge_203 edge_207"/>
    </vehicle>
    <person id="7" depart="0.70">
        <walk edges="edge_199 edge_99 edge_203 edge_94"/>
    </person>
    <vehicle id="9" depart="0.75" departLane="best" departPos="random" departSpeed="max">
        <route edges="edge_63 edge_62 edge_82 edge_197 edge_79 edge_55 edge_29 edge_7 E2"/>
    </vehicle>
    <person id="8" depart="0.80">
        <walk edges="edge_169 edge_65 edge_84 edge_200"/>
    </person>
    <vehicle id="10" depart="0.83" departLane="best" departPos="random" departSpeed="max">
        <route edges="edge_62 edge_186 edge_188 edge_67 edge_41"/>
    </vehicle>
    <person id="9" depart="0.90">
        <walk edges="edge_73 edge_74 edge_92 edge_206"/>
    </person>
    <vehicle id="11" depart="0.92" departLane="best" departPos="random" departSpeed="max">
        <route edges="edge_161 edge_160 edge_56 edge_184 edge_186 edge_65 edge_39 edge_17 edge_125"/>
    </vehicle>
    <person id="10" depart="1.00">
        <walk edges="edge_43 edge_172 edge_67 edge_87 edge_198 edge_96 edge_106"/>
    </person>
    <vehicle id="12" depart="1.00" departLane="best" departPos="random" departSpeed="max">
        <route edges="edge_91 edge_193 edge_69 edge_173 edge_171 edge_39 edge_17 edge_16"/>
    </vehicle>
    <vehicle id="13" depart="1.08" departLane="best" departPos="random" departSpeed="max">
        <route edges="edge_114"/>
    </vehicle>
    <person id="11" depart="1.10">
        <walk edges="edge_148 edge_40 edge_67 edge_87"/>
    </person>
    <vehicle id="14" depart="1.17" departLane="best" departPos="random" departSpeed="max">
        <route edges="edge_70 edge_192 edge_51 edge_47 edge_23"/>
    </vehicle>
    <person id="12" depart="1.20">
        <walk edges="edge_128 edge_19 edge_41 edge_171 edge_169"/>
    </person>
    <vehicle id="15" depart="1.25" departLane="best" departPos="random" departSpeed="max">
        <route edges="edge_62 edge_82 edge_96 edge_206 edge_101 edge_75 edge_51 edge_25 edge_48"/>
    </vehicle>
    <person id="13" depart="1.30">
        <walk edges="edge_97 edge_204 edge_94 edge_78 edge_54 edge_31"/>
    </person>
    <vehicle id="16" depart="1.33" departLane="best" departPos="random" departSpeed="max">
        <route edges="edge_199 edge_197 edge_94"/>
    </vehicle>
    <person id="14" depart="1.40">
        <walk edges="edge_201 edge_101 edge_202 edge_95 edge_76 edge_52 edge_26 edge_4"/>
    </person>
    <vehicle id="17" depart="1.42" departLane="best" departPos="random" departSpeed="max">
        <route edges="edge_169 edge_168 edge_170 edge_172 edge_43 edge_21 edge_20"/>
    </vehicle>
    <person id="15" depart="1.50">
        <walk edges="edge_7 edge_29 edge_161 edge_57"/>
    </person>
    <vehicle id="18" depart="1.50" departLane="best" departPos="random" departSpeed="max">
        <route edges="edge_67 edge_172 edge_68 edge_192 edge_178 edge_53 edge_27 edge_26"/>
    </vehicle>
    <vehicle id="19" depart="1.58" departLane="best" departPos="random" departSpeed="max">
        <route edges="edge_73 edge_50 edge_74 edge_100 edge_207 edge_205"/>
    </vehicle>
    <person id="16" depart="1.60">
        <walk edges="edge_140 edge_32 edge_57 edge_81 edge_96 edge_106 edge_103"/>
    </person>
    <vehicle id="20" depart="1.67" departLane="best" departPos="random" departSpeed="max">
        <route edges="edge_43 edge_42 edge_68 edge_88 edge_194 edge_94 edge_104"/>
    </vehicle>
    <person id="17" depart="1.70">
        <walk edges="edge_76 edge_53 edge_157"/>
    </person>
    <vehicle id="21" depart="1.75" departLane="best" departPos="random" departSpeed="max">
        <route edges="edge_14 edge_146 edge_148 edge_150"/>
    </vehicle>
    <person id="18" depart="1.80">
        <walk edges="edge_83 edge_81 edge_184"/>
    </person>
    <vehicle id="22" depart="1.83" departLane="best" departPos="random" departSpeed="max">
        <route edges="edge_111 edge_131 edge_129 edge_18 edge_147 edge_15 edge_14"/>
    </vehicle>
    <person id="19" depart="1.90">
        <walk edges="edge_202 edge_99 edge_87 edge_67 edge_41 edge_147"/>
    </person>
    <vehicle id="23" depart="1.92" departLane="best" departPos="random" departSpeed="max">
        <route edges="edge_116 edge_8 edge_32 edge_56 edge_80 edge_198 edge_87 edge_67 edge_172 edge_43 edge_149"/>
    </vehicle>
    <person id="20" depart="2.00">
        <walk edges="edge_99 edge_92 edge_75 edge_193"/>
    </person>
    <vehicle id="24" depart="2.00" departLane="best" departPos="random" departSpeed="max">
        <route edges="edge_3 edge_2 edge_134 edge_28 edge_160 edge_162 edge_164 edge_165"/>
    </vehicle>
    <vehicle id="25" depart="2.08" departLane="best" departPos="random" departSpeed="max">
        <route edges="edge_167 edge_165 edge_163 edge_33 edge_139 edge_137 edge_135"/>
    </vehicle>
    <person id="21" depart="2.10">
        <walk edges="edge_118 edge_9 edge_138 edge_31 edge_29"/>
    </person>
    <vehicle id="26" depart="2.17" departLane="best" departPos="random" departSpeed="max">
        <route edges="edge_147 edge_38 edge_64 edge_84 edge_87"/>
    </vehicle>
    <person id="22" depart="2.20">
        <walk edges="edge_99 edge_206 edge_96 edge_198"/>
    </person>
    <vehicle id="27" depart="2.25" departLane="best" departPos="random" departSpeed="max">
        <route edges="edge_32 edge_161 edge_159 edge_27 edge_133 edge_24"/>
    </vehicle>
    <person id="23" depart="2.30">
        <walk edges="edge_93 edge_92 edge_75 edge_73"/>
    </person>
    <vehicle id="28" depart="2.33" departLane="best" departPos="random" departSpeed="max">
        <route edges="edge_129 edge_18 edge_40 edge_172 edge_174 edge_176 edge_25 edge_48"/>
    </vehicle>
    <person id="24" depart="2.40">
        <walk edges="edge_39 edge_65 edge_85 edge_199"/>
    </person>
    <vehicle id="29" depart="2.42" departLane="best" departPos="random" departSpeed="max">
        <route edges="edge_128 edge_20 edge_42 edge_173 edge_171 edge_169 edge_168"/>
    </vehicle>
    <person id="25" depart="2.50">
        <walk edges="edge_192 edge_73 edge_47 edge_1 edge_131"/>
    </person>
    <vehicle id="30" depart="2.50" departLane="best" departPos="random" departSpeed="max">
        <route edges="edge_97 edge_81 edge_57 edge_33 edge_139 edge_30"/>
    </vehicle>
    <vehicle id="31" depart="2.58" departLane="best" departPos="random" departSpeed="max">
        <route edges="edge_201 edge_85 edge_65 edge_39"/>
    </vehicle>
    <person id="26" depart="2.60">
        <walk edges="edge_57 edge_81 edge_198"/>
    </person>
    <vehicle id="32" depart="2.67" departLane="best" departPos="random" departSpeed="max">
        <route edges="edge_7 edge_6 edge_28 edge_160 edge_56"/>
    </vehicle>
    <person id="27" depart="2.70">
        <walk edges="edge_101 edge_99 edge_86"/>
    </person>
    <vehicle id="33" depart="2.75" departLane="best" departPos="random" departSpeed="max">
        <route edges="edge_14 edge_38 edge_64 edge_84 edge_98 edge_101"/>
    </vehicle>
    <person id="28" depart="2.80">
        <walk edges="edge_76 edge_95 edge_203 edge_99 edge_87 edge_67"/>
    </person>
    <vehicle id="34" depart="2.83" departLane="best" departPos="random" departSpeed="max">
        <route edges="edge_156 edge_52 edge_179 edge_193 edge_69 edge_173 edge_41 edge_147"/>
    </vehicle>
    <person id="29" depart="2.90">
        <walk edges="edge_155 edge_24 edge_72 edge_74 edge_92 edge_109"/>
    </person>
    <vehicle id="35" depart="2.92" departLane="best" departPos="random" departSpeed="max">
        <route edges="edge_137 edge_28 edge_54 edge_78 edge_195 edge_89"/>
    </vehicle>
    <person id="30" depart="3.00">
        <walk edges="edge_76 edge_179 edge_90 edge_89"/>
    </person>
    <vehicle id="36" depart="3.00" departLane="best" departPos="random" departSpeed="max">
        <route edges="edge_76 edge_195 edge_75 edge_73 edge_156"/>
    </vehicle>
    <vehicle id="37" depart="3.08" departLane="best" departPos="random" departSpeed="max">
        <route edges="edge_33 edge_32 edge_56 edge_80 edge_198 edge_87 edge_67 edge_171"/>
    </vehicle>
    <person id="31" depart="3.10">
        <walk edges="edge_187 edge_84 edge_200"/>
    </person>
    <vehicle id="38" depart="3.17" departLane="best" departPos="random" departSpeed="max">
        <route edges="edge_83 edge_185 edge_183"/>
    </vehicle>
    <person id="32" depart="3.20">
        <walk edges="edge_148 edge_40 edge_172 edge_69 edge_88 edge_75"/>
    </person>
    <vehicle id="39" depart="3.25" departLane="best" departPos="random" departSpeed="max">
        <route edges="edge_147 edge_145 edge_143 edge_142"/>
    </vehicle>
    <person id="33" depart="3.30">
        <walk edges="edge_2 edge_132 edge_48"/>
    </person>
    <vehicle id="40" depart="3.33" departLane="best" departPos="random" departSpeed="max">
        <route edges="edge_202 edge_203 edge_99 edge_85 edge_65 edge_39 edge_146"/>
    </vehicle>
    <person id="34" depart="3.40">
        <walk edges="edge_135 edge_26 edge_156"/>
    </person>
    <vehicle id="41" depart="3.42" departLane="best" departPos="random" departSpeed="max">
        <route edges="edge_207 edge_97 edge_81 edge_57 edge_33 edge_9 edge_8"/>
    </vehicle>
    <person id="35" depart="3.50">
        <walk edges="edge_98 edge_206 edge_96 edge_81 edge_57 edge_33"/>
    </person>
    <vehicle id="42" depart="3.50" departLane="best" departPos="random" departSpeed="max">
        <route edges="edge_172 edge_68 edge_88 edge_194 edge_79 edge_55 edge_31 edge_138"/>
    </vehicle>
    <vehicle id="43" depart="3.58" departLane="best" departPos="random" departSpeed="max">
        <route edges="edge_99 edge_200 edge_91 edge_193"/>
    </vehicle>
    <person id="36" depart="3.60">
        <walk edges="edge_180 edge_76 edge_195"/>
    </person>
    <vehicle id="44" depart="3.67" departLane="best" departPos="random" departSpeed="max">
        <route edges="edge_114 edge_6 edge_28 edge_54 edge_78 edge_94 edge_104"/>
    </vehicle>
    <person id="37" depart="3.70">
        <walk edges="edge_140 edge_139"/>
    </person>
    <vehicle id="45" depart="3.75" departLane="best" departPos="random" departSpeed="max">
        <route edges="edge_117 edge_6 edge_28"/>
    </vehicle>
    <person id="38" depart="3.80">
        <walk edges="edge_140 edge_32 edge_57 edge_81"/>
    </person>
    <vehicle id="46" depart="3.83" departLane="best" departPos="random" departSpeed="max">
        <route edges="edge_6 edge_135 edge_26 edge_157 edge_177 edge_176"/>
    </vehicle>
    <person id="39" depart="3.90">
        <walk edges="edge_72 edge_46 edge_22 edge_110"/>
    </person>
    <vehicle id="47" depart="3.92" departLane="best" departPos="random" departSpeed="max">
        <route edges="edge_109 edge_99 edge_85 edge_65 edge_169"/>
    </vehicle>
    <person id="40" depart="4.00">
        <walk edges="edge_142 edge_37"/>
    </person>
    <vehicle id="48" depart="4.00" departLane="best" departPos="random" departSpeed="max">
        <route edges="edge_99 edge_199 edge_197"/>
    </vehicle>
    <vehicle id="49" depart="4.08" departLane="best" departPos="random" departSpeed="max">
        <route edges="edge_93 edge_75 edge_51 edge_72"/>
    </vehicle>
    <person id="41" depart="4.10">
        <walk edges="edge_138 edge_13 edge_122"/>
    </person>
    <vehicle id="50" depart="4.17" departLane="best" departPos="random" departSpeed="max">
        <route edges="edge_1 edge_0 edge_46"/>
    </vehicle>
    <person id="42" depart="4.20">
        <walk edges="edge_87 edge_99 edge_203 edge_204"/>
    </person>
    <vehicle id="51" depart="4.25" departLane="best" departPos="random" departSpeed="max">
        <route edges="edge_39 edge_38 edge_64 edge_187 edge_82 edge_198"/>
    </vehicle>
    <person id="43" depart="4.30">
        <walk edges="edge_187 edge_184 edge_59"/>
    </person>
    <vehicle id="52" depart="4.33" departLane="best" departPos="random" departSpeed="max">
        <route edges="edge_147 edge_38 edge_64 edge_187 edge_185 edge_57 edge_33 edge_139 edge_30"/>
    </vehicle>
    <person id="44" depart="4.40">
        <walk edges="edge_116 edge_7 edge_135 edge_26 edge_53 edge_179"/>
    </person>
    <vehicle id="53" depart="4.42" departLane="best" departPos="random" departSpeed="max">
        <route edges="edge_118 edge_10 edge_139 edge_30 edge_54 edge_181 edge_179"/>
    </vehicle>
    <person id="45" depart="4.50">
        <walk edges="edge_133 edge_27 edge_53 edge_180 edge_182"/>
    </person>
    <vehicle id="54" depart="4.50" departLane="best" departPos="random" departSpeed="max">
        <route edges="edge_182 edge_183 edge_181 edge_179 edge_90"/>
    </vehicle>
    <vehicle id="55" depart="4.58" departLane="best" departPos="random" departSpeed="max">
        <route edges="edge_76 edge_196 edge_83 edge_186 edge_65 edge_39 edge_146"/>
    </vehicle>
    <person id="46" depart="4.60">
        <walk edges="edge_144 edge_36 edge_62 edge_186 edge_85"/>
    </person>
    <vehicle id="56" depart="4.67" departLane="best" departPos="random" departSpeed="max">
        <route edges="edge_191 edge_86 edge_199 edge_81 edge_57 edge_33 edge_13"/>
    </vehicle>
    <person id="47" depart="4.70">
        <walk edges="edge_181 edge_178 edge_73"/>
    </person>
    <vehicle id="57" depart="4.75" departLane="best" departPos="random" departSpeed="max">
        <route edges="edge_82 edge_96 edge_206 edge_101 edge_91 edge_74"/>
    </vehicle>
    <person id="48" depart="4.80">
        <walk edges="edge_200 edge_99 edge_109 edge_107"/>
    </person>
    <vehicle id="58" depart="4.83" departLane="best" departPos="random" departSpeed="max">
        <route edges="edge_153 edge_44 edge_70 edge_88 edge_194 edge_79 edge_55 edge_31 edge_30"/>
    </vehicle>
    <person id="49" depart="4.90">
        <walk edges="edge_99 edge_92 edge_88 edge_68"/>
    </person>
    <vehicle id="59" depart="4.92" departLane="best" departPos="random" departSpeed="max">
        <route edges="edge_25 edge_24 edge_177 edge_175 edge_173 edge_171 edge_39 edge_17 edge_125"/>
    </vehicle>
    <person id="50" depart="5.00">
        <walk edges="edge_93 edge_99 edge_85"/>
    </person>
    <vehicle id="60" depart="5.00" departLane="best" departPos="random" departSpeed="max">
        <route edges="edge_54 edge_78 edge_94 edge_203 edge_99 edge_199"/>
    </vehicle>
    <vehicle id="61" depart="5.08" departLane="best" departPos="random" departSpeed="max">
        <route edges="edge_57 edge_56 edge_80 edge_197"/>
    </vehicle>
    <person id="51" depart="5.10">
        <walk edges="edge_70 edge_175 edge_42 edge_21 edge_129"/>
    </person>
    <vehicle id="62" depart="5.17" departLane="best" departPos="random" departSpeed="max">
        <route edges="E0 edge_0 edge_46 edge_156 edge_158"/>
    </vehicle>
    <person id="52" depart="5.20">
        <walk edges="edge_173 edge_69 edge_88 edge_92 edge_109"/>
    </person>
    <vehicle id="63" depart="5.25" departLane="best" departPos="random" departSpeed="max">
        <route edges="edge_100 edge_99 edge_87 edge_86"/>
    </vehicle>
    <person id="53" depart="5.30">
        <walk edges="edge_169 edge_65 edge_186 edge_82 edge_96"/>
    </person>
    <vehicle id="64" depart="5.33" departLane="best" departPos="random" departSpeed="max">
        <route edges="edge_76 edge_94 edge_203 edge_99 edge_87 edge_67"/>
    </vehicle>
    <person id="54" depart="5.40">
        <walk edges="edge_91 edge_92 edge_99"/>
    </person>
    <vehicle id="65" depart="5.42" departLane="best" departPos="random" departSpeed="max">
        <route edges="edge_155 edge_46 edge_50 edge_74 edge_92 edge_102 edge_107"/>
    </vehicle>
    <person id="55" depart="5.50">
        <walk edges="edge_201 edge_101 edge_92 edge_90 edge_72 edge_46"/>
    </person>
    <vehicle id="66" depart="5.50" departLane="best" departPos="random" departSpeed="max">
        <route edges="edge_76 edge_195 edge_89"/>
    </vehicle>
    <vehicle id="67" depart="5.58" departLane="best" departPos="random" departSpeed="max">
        <route edges="edge_112 edge_4 edge_26 edge_52 edge_179 edge_193 edge_191 edge_189"/>
    </vehicle>
    <person id="56" depart="5.60">
        <walk edges="edge_93 edge_206"/>
    </person>
    <vehicle id="68" depart="5.67" departLane="best" departPos="random" departSpeed="max">
        <route edges="edge_11 edge_10 edge_139 edge_30 edge_54 edge_181 edge_53"/>
    </vehicle>
    <person id="57" depart="5.70">
        <walk edges="edge_2 edge_26 edge_53 edge_178 edge_51"/>
    </person>
    <vehicle id="69" depart="5.75" departLane="best" departPos="random" departSpeed="max">
        <route edges="edge_55 edge_31 edge_138 edge_13 edge_12"/>
    </vehicle>
    <person id="58" depart="5.80">
        <walk edges="edge_108 edge_207"/>
    </person>
    <vehicle id="70" depart="5.83" departLane="best" departPos="random" departSpeed="max">
        <route edges="edge_187 edge_186 edge_188 edge_67 edge_172 edge_43 edge_21 edge_20"/>
    </vehicle>
    <person id="59" depart="5.90">
        <walk edges="edge_192 edge_71"/>
    </person>
    <vehicle id="71" depart="5.92" departLane="best" departPos="random" departSpeed="max">
        <route edges="edge_147 edge_38 edge_64 edge_84 edge_200 edge_75"/>
    </vehicle>
    <person id="60" depart="6.00">
        <walk edges="edge_127 edge_19 edge_40 edge_172 edge_69 edge_88 edge_91"/>
    </person>
    <vehicle id="72" depart="6.00" departLane="best" departPos="random" departSpeed="max">
        <route edges="edge_177 edge_176 edge_156 edge_27 edge_134 edge_136"/>
    </vehicle>
    <vehicle id="73" depart="6.08" departLane="best" departPos="random" departSpeed="max">
        <route edges="edge_199 edge_96 edge_206 edge_101 edge_75 edge_51 edge_25 edge_48"/>
    </vehicle>
    <person id="61" depart="6.10">
        <walk edges="edge_112 edge_3 edge_132"/>
    </person>
    <vehicle id="74" depart="6.17" departLane="best" departPos="random" departSpeed="max">
        <route edges="edge_135 edge_133 edge_155"/>
    </vehicle>
    <person id="62" depart="6.20">
        <walk edges="edge_141 edge_12"/>
    </person>
    <vehicle id="75" depart="6.25" departLane="best" departPos="random" departSpeed="max">
        <route edges="edge_98 edge_207 edge_97 edge_81 edge_57 edge_33 edge_32"/>
    </vehicle>
    <person id="63" depart="6.30">
        <walk edges="edge_177 edge_51 edge_74 edge_92 edge_207"/>
    </person>
    <vehicle id="76" depart="6.33" departLane="best" departPos="random" departSpeed="max">
        <route edges="edge_18 edge_40 edge_172 edge_68 edge_88 edge_194"/>
    </vehicle>
    <person id="64" depart="6.40">
        <walk edges="edge_196 edge_94 edge_203 edge_99 edge_87"/>
    </person>
    <vehicle id="77" depart="6.42" departLane="best" departPos="random" departSpeed="max">
        <route edges="edge_12 edge_139"/>
    </vehicle>
    <person id="65" depart="6.50">
        <walk edges="edge_157 edge_52"/>
    </person>
    <vehicle id="78" depart="6.50" departLane="best" departPos="random" departSpeed="max">
        <route edges="edge_160 edge_56 edge_80 edge_96 edge_206 edge_207"/>
    </vehicle>
    <vehicle id="79" depart="6.58" departLane="best" departPos="random" departSpeed="max">
        <route edges="edge_140 edge_141 edge_139 edge_138"/>
    </vehicle>
    <person id="66" depart="6.60">
        <walk edges="edge_99"/>
    </person>
    <vehicle id="80" depart="6.67" departLane="best" departPos="random" departSpeed="max">
        <route edges="edge_11 edge_10 edge_139 edge_30 edge_29"/>
    </vehicle>
    <person id="67" depart="6.70">
        <walk edges="edge_148 edge_40 edge_67 edge_87"/>
    </person>
    <vehicle id="81" depart="6.75" departLane="best" departPos="random" departSpeed="max">
        <route edges="edge_14 edge_38 edge_64 edge_187 edge_82 edge_81"/>
    </vehicle>
    <person id="68" depart="6.80">
        <walk edges="edge_77 edge_76"/>
    </person>
    <vehicle id="82" depart="6.83" departLane="best" departPos="random" departSpeed="max">
        <route edges="edge_72 edge_74 edge_100 edge_108 edge_109"/>
    </vehicle>
    <person id="69" depart="6.90">
        <walk edges="edge_68 edge_43"/>
    </person>
    <vehicle id="83" depart="6.92" departLane="best" departPos="random" departSpeed="max">
        <route edges="edge_141 edge_140 edge_142 edge_36"/>
    </vehicle>
    <person id="70" depart="7.00">
        <walk edges="edge_122 edge_12"/>
    </person>
    <vehicle id="84" depart="7.00" departLane="best" departPos="random" departSpeed="max">
        <route edges="edge_137 edge_136 edge_138 edge_11 edge_120"/>
    </vehicle>
    <vehicle id="85" depart="7.08" departLane="best" departPos="random" departSpeed="max">
        <route edges="edge_87 edge_86 edge_98 edge_202 edge_203"/>
    </vehicle>
    <person id="71" depart="7.10">
        <walk edges="edge_19 edge_41 edge_67 edge_87 edge_198 edge_81"/>
    </person>
    <vehicle id="86" depart="7.17" departLane="best" departPos="random" departSpeed="max">
        <route edges="edge_186 edge_187 edge_61 edge_165 edge_58"/>
    </vehicle>
    <person id="72" depart="7.20">
        <walk edges="edge_7 edge_115"/>
    </person>
    <vehicle id="87" depart="7.25" departLane="best" departPos="random" departSpeed="max">
        <route edges="edge_62 edge_82 edge_96 edge_206 edge_101 edge_75 edge_51 edge_47 edge_1 edge_131"/>
    </vehicle>
    <person id="73" depart="7.30">
        <walk edges="edge_68 edge_88 edge_92 edge_207"/>
    </person>
    <vehicle id="88" depart="7.33" departLane="best" departPos="random" departSpeed="max">
        <route edges="edge_115 edge_4 edge_26 edge_52 edge_179 edge_178"/>
    </vehicle>
    <person id="74" depart="7.40">
        <walk edges="edge_8 edge_138 edge_137"/>
    </person>
    <vehicle id="89" depart="7.42" departLane="best" departPos="random" departSpeed="max">
        <route edges="edge_177 edge_70 edge_191 edge_189 edge_187 edge_185"/>
    </vehicle>
    <person id="75" depart="7.50">
        <walk edges="edge_58 edge_182 edge_79 edge_77"/>
    </person>
    <vehicle id="90" depart="7.50" departLane="best" departPos="random" departSpeed="max">
        <route edges="edge_48 edge_50 edge_74 edge_100 edge_207 edge_97 edge_83 edge_63 edge_37"/>
    </vehicle>
    <vehicle id="91" depart="7.58" departLane="best" departPos="random" departSpeed="max">
        <route edges="edge_96 edge_205 edge_95 edge_77 edge_53 edge_27 edge_5 edge_114"/>
    </vehicle>
    <person id="76" depart="7.60">
        <walk edges="edge_127 edge_19 edge_40 edge_66 edge_86"/>
    </person>
    <vehicle id="92" depart="7.67" departLane="best" departPos="random" departSpeed="max">
        <route edges="edge_173 edge_66 edge_86 edge_98 edge_202 edge_95 edge_79 edge_55 edge_160"/>
    </vehicle>
    <person id="77" depart="7.70">
        <walk edges="edge_73 edge_74 edge_194 edge_95"/>
    </person>
    <vehicle id="93" depart="7.75" departLane="best" departPos="random" departSpeed="max">
        <route edges="edge_73 edge_50 edge_74 edge_100 edge_207 edge_97 edge_83 edge_63 edge_37 edge_143"/>
    </vehicle>
    <person id="78" depart="7.80">
        <walk edges="edge_63 edge_82 edge_196 edge_77"/>
    </person>
    <vehicle id="94" depart="7.83" departLane="best" departPos="random" departSpeed="max">
        <route edges="edge_132 edge_26 edge_52 edge_180 edge_181"/>
    </vehicle>
    <person id="79" depart="7.90">
        <walk edges="edge_102 edge_203 edge_95 edge_76 edge_52 edge_26 edge_5"/>
    </person>
    <vehicle id="95" depart="7.92" departLane="best" departPos="random" departSpeed="max">
        <route edges="edge_177 edge_175 edge_43 edge_149"/>
    </vehicle>
    <person id="80" depart="8.00">
        <walk edges="edge_63 edge_186 edge_188 edge_67 edge_40 edge_148"/>
    </person>
    <vehicle id="96" depart="8.00" departLane="best" departPos="random" departSpeed="max">
        <route edges="edge_144 edge_38 edge_64 edge_84"/>
    </vehicle>
    <vehicle id="97" depart="8.08" departLane="best" departPos="random" departSpeed="max">
        <route edges="edge_180 edge_181 edge_179 edge_51 edge_72"/>
    </vehicle>
    <person id="81" depart="8.10">
        <walk edges="edge_59 edge_56 edge_33 edge_9 edge_118"/>
    </person>
    <vehicle id="98" depart="8.17" departLane="best" departPos="random" departSpeed="max">
        <route edges="edge_200 edge_100 edge_108 edge_105"/>
    </vehicle>
    <person id="82" depart="8.20">
        <walk edges="edge_75 edge_90 edge_72"/>
    </person>
    <vehicle id="99" depart="8.25" departLane="best" departPos="random" departSpeed="max">
        <route edges="edge_99 edge_87 edge_67 edge_172 edge_68"/>
    </vehicle>
    <person id="83" depart="8.30">
        <walk edges="edge_14 edge_38 edge_64"/>
    </person>
    <vehicle id="100" depart="8.33" departLane="best" departPos="random" departSpeed="max">
        <route edges="edge_93 edge_201 edge_85"/>
    </vehicle>
    <person id="84" depart="8.40">
        <walk edges="edge_60 edge_164 edge_162 edge_32 edge_140"/>
    </person>
    <vehicle id="101" depart="8.42" departLane="best" departPos="random" departSpeed="max">
        <route edges="edge_70 edge_69 edge_173 edge_41 edge_19 edge_127"/>
    </vehicle>
    <person id="85" depart="8.50">
        <walk edges="edge_101 edge_202 edge_95 edge_76 edge_52 edge_26 edge_134"/>
    </person>
    <vehicle id="102" depart="8.50" departLane="best" departPos="random" departSpeed="max">
        <route edges="edge_189 edge_187 edge_185 edge_57 edge_161 edge_29 edge_136"/>
    </vehicle>
    <vehicle id="103" depart="8.58" departLane="best" departPos="random" departSpeed="max">
        <route edges="edge_172 edge_68 edge_88 edge_92 edge_102 edge_107"/>
    </vehicle>
    <person id="86" depart="8.60">
        <walk edges="edge_93 edge_92 edge_88 edge_68 edge_42 edge_150"/>
    </person>
    <vehicle id="104" depart="8.67" departLane="best" departPos="random" departSpeed="max">
        <route edges="edge_169 edge_62 edge_82 edge_96"/>
    </vehicle>
    <person id="87" depart="8.70">
        <walk edges="edge_96 edge_199"/>
    </person>
    <vehicle id="105" depart="8.75" departLane="best" departPos="random" departSpeed="max">
        <route edges="edge_147 edge_38 edge_64 edge_187 edge_61 edge_165 edge_58"/>
    </vehicle>
    <person id="88" depart="8.80">
        <walk edges="edge_93 edge_92 edge_90 edge_51 edge_47 edge_23 edge_131"/>
    </person>
    <vehicle id="106" depart="8.83" departLane="best" departPos="random" departSpeed="max">
        <route edges="edge_183 edge_78 edge_195 edge_89 edge_71 edge_176"/>
    </vehicle>
    <person id="89" depart="8.90">
        <walk edges="edge_92 edge_88 edge_69 edge_172 edge_40 edge_148"/>
    </person>
    <vehicle id="107" depart="8.92" departLane="best" departPos="random" departSpeed="max">
        <route edges="edge_91 edge_74 edge_92 edge_99"/>
    </vehicle>
    <person id="90" depart="9.00">