<?xml version="1.0" encoding="UTF-8"?>

<!-- generated on 2025-05-03 09:02:42 by Eclipse SUMO netedit Version 1.18.0
<configuration xmlns:xsi="http://www.w3.org/2001/XMLSchema-instance" xsi:noNamespaceSchemaLocation="http://sumo.dlr.de/xsd/neteditConfiguration.xsd">

    <input>
        <sumo-net-file value="/home/ad/Documents/sumo-netedit/complex_map.net.xml"/>
    </input>

    <output>
        <output-file value="/home/ad/Documents/sumo-netedit/complex_map.net.xml"/>
    </output>

    <processing>
        <geometry.min-radius.fix.railways value="false"/>
        <geometry.max-grade.fix value="false"/>
        <offset.disable-normalization value="true"/>
        <lefthand value="0"/>
    </processing>

    <junctions>
        <no-internal-links value="false"/>
        <no-turnarounds value="true"/>
        <junctions.corner-detail value="5"/>
        <junctions.limit-turn-speed value="5.50"/>
        <rectangular-lane-cut value="0"/>
    </junctions>

    <pedestrian>
        <walkingareas value="1"/>
    </pedestrian>

</configuration>
-->

<net version="1.16" junctionCornerDetail="5" walkingareas="true" limitTurnSpeed="5.50" xmlns:xsi="http://www.w3.org/2001/XMLSchema-instance" xsi:noNamespaceSchemaLocation="http://sumo.dlr.de/xsd/net_file.xsd">

    <location netOffset="-6.91,-44.34" convBoundary="-274.59,-206.60,2530.93,1841.80" origBoundary="6.91,44.34,1903.37,1886.14" projParameter="!"/>

    <edge id=":n0_0" function="internal">
        <lane id=":n0_0_0" index="0" disallow="pedestrian" speed="13.89" length="28.94" shape="100.96,1684.15 91.15,1680.46 83.84,1676.81 79.01,1673.21 76.67,1669.66"/>
    </edge>
    <edge id=":n0_1" function="internal">
        <lane id=":n0_1_0" index="0" disallow="pedestrian" speed="7.00" length="2.55" shape="100.96,1684.15 98.93,1682.61"/>
    </edge>
    <edge id=":n0_2" function="internal">
        <lane id=":n0_2_0" index="0" disallow="pedestrian" speed="3.65" length="1.44" shape="100.96,1684.15 100.08,1683.01"/>
    </edge>
    <edge id=":n0_9" function="internal">
        <lane id=":n0_9_0" index="0" disallow="pedestrian" speed="7.00" length="16.76" shape="98.93,1682.61 96.89,1681.08 95.79,1676.66 97.55,1672.45 102.03,1670.02"/>
    </edge>
    <edge id=":n0_10" function="internal">
        <lane id=":n0_10_0" index="0" disallow="pedestrian" speed="3.65" length="3.23" shape="100.08,1683.01 99.96,1682.12 100.59,1681.49 101.98,1681.12"/>
    </edge>
    <edge id=":n0_3" function="internal">
        <lane id=":n0_3_0" index="0" disallow="pedestrian" speed="6.78" length="18.02" shape="102.58,1673.18 96.56,1674.72 94.46,1676.55 96.26,1678.69 101.98,1681.12"/>
    </edge>
    <edge id=":n0_4" function="internal">
        <lane id=":n0_4_0" index="0" disallow="pedestrian" speed="11.55" length="27.71" shape="102.58,1673.18 92.13,1674.50 84.33,1674.35 79.17,1672.74 76.67,1669.66"/>
    </edge>
    <edge id=":n0_5" function="internal">
        <lane id=":n0_5_0" index="0" disallow="pedestrian" speed="3.65" length="4.67" shape="102.58,1673.18 101.26,1672.60 100.73,1671.88 100.99,1671.02 102.03,1670.02"/>
    </edge>
    <edge id=":n0_6" function="internal">
        <lane id=":n0_6_0" index="0" disallow="pedestrian" speed="10.62" length="19.27" shape="79.73,1668.71 81.69,1670.65 86.07,1671.51 92.85,1671.30 98.07,1670.58"/>
    </edge>
    <edge id=":n0_7" function="internal">
        <lane id=":n0_7_0" index="0" disallow="pedestrian" speed="13.89" length="21.97" shape="79.73,1668.71 81.76,1671.55 86.14,1674.56 92.88,1677.75 98.23,1679.73"/>
    </edge>
    <edge id=":n0_8" function="internal">
        <lane id=":n0_8_0" index="0" disallow="pedestrian" speed="3.65" length="1.17" shape="79.73,1668.71 79.39,1669.83"/>
    </edge>
    <edge id=":n0_11" function="internal">
        <lane id=":n0_11_0" index="0" disallow="pedestrian" speed="10.62" length="4.00" shape="98.07,1670.58 102.03,1670.02"/>
    </edge>
    <edge id=":n0_12" function="internal">
        <lane id=":n0_12_0" index="0" disallow="pedestrian" speed="13.89" length="4.00" shape="98.23,1679.73 101.98,1681.12"/>
    </edge>
    <edge id=":n0_13" function="internal">
        <lane id=":n0_13_0" index="0" disallow="pedestrian" speed="3.65" length="3.50" shape="79.39,1669.83 79.32,1670.09 78.67,1670.71 77.79,1670.57 76.67,1669.66"/>
    </edge>
    <edge id=":n0_c0" function="crossing" crossingEdges="edge_129 edge_128">
        <lane id=":n0_c0_0" index="0" allow="pedestrian" speed="2.78" length="6.40" width="4.00" shape="100.60,1678.96 98.56,1685.03"/>
    </edge>
    <edge id=":n0_c1" function="crossing" crossingEdges="edge_20 edge_21">
        <lane id=":n0_c1_0" index="0" allow="pedestrian" speed="2.78" length="6.40" width="4.00" shape="99.79,1668.79 100.89,1675.10"/>
    </edge>
    <edge id=":n0_c2" function="crossing" crossingEdges="edge_130 edge_131">
        <lane id=":n0_c2_0" index="0" allow="pedestrian" speed="2.78" length="6.40" width="4.00" shape="75.73,1672.04 81.85,1670.15"/>
    </edge>
    <edge id=":n0_w0" function="walkingarea">
        <lane id=":n0_w0_0" index="0" allow="pedestrian" speed="2.78" length="19.69" width="4.00" shape="75.14,1670.13 73.23,1670.72 75.57,1675.06 79.33,1678.62 84.08,1681.53 89.37,1683.90 94.76,1685.87 99.82,1687.56 100.45,1685.67 93.39,1683.10 87.47,1680.52 82.68,1677.94 79.03,1675.34 76.52,1672.74"/>
    </edge>
    <edge id=":n0_w1" function="walkingarea">
        <lane id=":n0_w1_0" index="0" allow="pedestrian" speed="2.78" length="3.23" width="4.00" shape="102.49,1679.60 103.13,1677.70 103.20,1676.72 102.86,1674.75 102.17,1675.17 101.71,1676.02 101.50,1677.09 101.55,1678.18 101.88,1679.08"/>
    </edge>
    <edge id=":n0_w2" function="walkingarea">
        <lane id=":n0_w2_0" index="0" allow="pedestrian" speed="2.78" length="13.23" width="4.00" shape="101.76,1668.45 101.41,1666.48 83.17,1667.65 81.26,1668.24 82.13,1669.24 84.03,1669.86 86.94,1670.09 90.86,1669.93 95.80,1669.38"/>
    </edge>
    <edge id=":n1_0" function="internal">
        <lane id=":n1_0_0" index="0" disallow="pedestrian" speed="13.89" length="41.19" shape="612.49,1842.69 603.19,1843.13 591.77,1843.68 580.45,1843.59 571.45,1842.13"/>
    </edge>
    <edge id=":n1_1" function="internal">
        <lane id=":n1_1_0" index="0" disallow="pedestrian" speed="6.77" length="1.94" shape="612.49,1842.69 610.68,1842.00"/>
    </edge>
    <edge id=":n1_2" function="internal">
        <lane id=":n1_2_0" index="0" disallow="pedestrian" speed="3.65" length="1.44" shape="612.49,1842.69 611.28,1841.91"/>
    </edge>
    <edge id=":n1_9" function="internal">
        <lane id=":n1_9_0" index="0" disallow="pedestrian" speed="6.77" length="17.55" shape="610.68,1842.00 607.79,1840.92 605.62,1836.72 606.30,1832.04 610.16,1828.84"/>
    </edge>
    <edge id=":n1_10" function="internal">
        <lane id=":n1_10_0" index="0" disallow="pedestrian" speed="3.65" length="3.23" shape="611.28,1841.91 610.86,1841.12 611.25,1840.31 612.43,1839.49"/>
    </edge>
    <edge id=":n1_3" function="internal">
        <lane id=":n1_3_0" index="0" disallow="pedestrian" speed="7.92" length="27.37" shape="611.15,1831.88 601.88,1835.40 599.00,1837.84 602.52,1839.20 612.43,1839.49"/>
    </edge>
    <edge id=":n1_4" function="internal">
        <lane id=":n1_4_0" index="0" disallow="pedestrian" speed="13.89" length="41.46" shape="611.15,1831.88 602.27,1835.24 591.29,1839.36 580.31,1842.31 571.45,1842.13"/>
    </edge>
    <edge id=":n1_5" function="internal">
        <lane id=":n1_5_0" index="0" disallow="pedestrian" speed="3.65" length="4.67" shape="611.15,1831.88 609.76,1831.49 609.13,1830.86 609.27,1829.97 610.16,1828.84"/>
    </edge>
    <edge id=":n1_6" function="internal">
        <lane id=":n1_6_0" index="0" disallow="pedestrian" speed="13.89" length="35.54" shape="572.46,1839.10 581.02,1839.27 591.30,1836.32 601.59,1832.20 606.43,1830.30"/>
    </edge>
    <edge id=":n1_7" function="internal">
        <lane id=":n1_7_0" index="0" disallow="pedestrian" speed="13.89" length="40.11" shape="572.46,1839.10 581.30,1840.53 592.25,1840.56 603.30,1839.95 612.43,1839.49"/>
    </edge>
    <edge id=":n1_8" function="internal">
        <lane id=":n1_8_0" index="0" disallow="pedestrian" speed="3.65" length="1.28" shape="572.46,1839.10 573.25,1840.12"/>
    </edge>
    <edge id=":n1_11" function="internal">
        <lane id=":n1_11_0" index="0" disallow="pedestrian" speed="13.89" length="4.01" shape="606.43,1830.30 610.16,1828.84"/>
    </edge>
    <edge id=":n1_12" function="internal">
        <lane id=":n1_12_0" index="0" disallow="pedestrian" speed="3.65" length="3.39" shape="573.25,1840.12 573.35,1840.24 573.47,1841.13 572.84,1841.76 571.45,1842.13"/>
    </edge>
    <edge id=":n1_c0" function="crossing" crossingEdges="edge_127 edge_126">
        <lane id=":n1_c0_0" index="0" allow="pedestrian" speed="2.78" length="6.40" width="4.00" shape="610.40,1837.93 610.52,1844.32"/>
    </edge>
    <edge id=":n1_c1" function="crossing" crossingEdges="edge_18 edge_19">
        <lane id=":n1_c1_0" index="0" allow="pedestrian" speed="2.78" length="6.40" width="4.00" shape="607.76,1827.94 609.74,1834.02"/>
    </edge>
    <edge id=":n1_c2" function="crossing" crossingEdges="edge_128 edge_129">
        <lane id=":n1_c2_0" index="0" allow="pedestrian" speed="2.78" length="6.40" width="4.00" shape="572.83,1844.29 574.87,1838.22"/>
    </edge>
    <edge id=":n1_w0" function="walkingarea">
        <lane id=":n1_w0_0" index="0" allow="pedestrian" speed="2.78" length="27.29" width="4.00" shape="570.94,1843.65 570.30,1845.55 576.03,1846.72 583.25,1847.20 591.24,1847.18 599.27,1846.89 606.62,1846.52 612.56,1846.28 612.52,1844.29 603.59,1844.84 596.88,1845.77 591.33,1846.60 585.86,1846.85 579.42,1846.02"/>
    </edge>
    <edge id=":n1_w1" function="walkingarea">
        <lane id=":n1_w1_0" index="0" allow="pedestrian" speed="2.78" length="3.13" width="4.00" shape="612.40,1837.89 612.36,1835.89 612.26,1835.31 611.64,1833.40 611.09,1833.90 610.86,1834.78 610.91,1835.83 611.21,1836.84 611.72,1837.60"/>
    </edge>
    <edge id=":n1_w2" function="walkingarea">
        <lane id=":n1_w2_0" index="0" allow="pedestrian" speed="2.78" length="24.74" width="4.00" shape="609.66,1827.32 609.05,1825.42 573.61,1835.69 572.97,1837.58 580.70,1839.34 586.49,1838.93 591.30,1836.93 596.11,1833.95 601.91,1830.55"/>
    </edge>
    <edge id=":n10_0" function="internal">
        <lane id=":n10_0_0" index="0" disallow="pedestrian" speed="8.78" length="11.99" shape="984.70,517.72 983.43,513.89 981.91,511.07 980.13,509.24 978.09,508.42"/>
    </edge>
    <edge id=":n10_1" function="internal">
        <lane id=":n10_1_0" index="0" disallow="pedestrian" speed="11.99" length="23.42" shape="984.70,517.72 984.23,512.46 985.65,507.39 988.95,502.51 994.13,497.84"/>
    </edge>
    <edge id=":n10_2" function="internal">
        <lane id=":n10_2_0" index="0" disallow="pedestrian" speed="8.40" length="20.79" shape="984.70,517.72 984.34,512.61 986.43,509.35 990.98,507.93 997.99,508.36"/>
    </edge>
    <edge id=":n10_3" function="internal">
        <lane id=":n10_3_0" index="0" disallow="pedestrian" speed="3.65" length="4.67" shape="984.70,517.72 985.16,516.36 985.84,515.77 986.71,515.95 987.79,516.91"/>
    </edge>
    <edge id=":n10_4" function="internal">
        <lane id=":n10_4_0" index="0" disallow="pedestrian" speed="6.97" length="9.11" shape="997.47,511.52 992.51,511.14 989.25,511.91 988.75,512.52"/>
    </edge>
    <edge id=":n10_5" function="internal">
        <lane id=":n10_5_0" index="0" disallow="pedestrian" speed="13.89" length="19.63" shape="997.47,511.52 978.09,508.42"/>
    </edge>
    <edge id=":n10_6" function="internal">
        <lane id=":n10_6_0" index="0" disallow="pedestrian" speed="7.99" length="5.97" shape="997.47,511.52 991.72,509.88"/>
    </edge>
    <edge id=":n10_7" function="internal">
        <lane id=":n10_7_0" index="0" disallow="pedestrian" speed="3.65" length="1.44" shape="997.47,511.52 996.41,510.53"/>
    </edge>
    <edge id=":n10_16" function="internal">
        <lane id=":n10_16_0" index="0" disallow="pedestrian" speed="6.97" length="4.77" shape="988.75,512.52 987.68,513.84 987.79,516.91"/>
    </edge>
    <edge id=":n10_17" function="internal">
        <lane id=":n10_17_0" index="0" disallow="pedestrian" speed="7.99" length="16.46" shape="991.72,509.88 990.61,509.57 987.76,506.64 988.94,502.73 994.13,497.84"/>
    </edge>
    <edge id=":n10_18" function="internal">
        <lane id=":n10_18_0" index="0" disallow="pedestrian" speed="3.65" length="3.23" shape="996.41,510.53 996.15,509.68 996.67,508.95 997.99,508.36"/>
    </edge>
    <edge id=":n10_8" function="internal">
        <lane id=":n10_8_0" index="0" disallow="pedestrian" speed="6.24" length="13.05" shape="996.04,500.40 993.03,503.25 992.34,505.52 994.00,507.23 997.99,508.36"/>
    </edge>
    <edge id=":n10_9" function="internal">
        <lane id=":n10_9_0" index="0" disallow="pedestrian" speed="11.01" length="19.61" shape="996.04,500.40 991.58,504.38 988.72,508.46 987.46,512.64 987.79,516.91"/>
    </edge>
    <edge id=":n10_10" function="internal">
        <lane id=":n10_10_0" index="0" disallow="pedestrian" speed="13.89" length="20.04" shape="996.04,500.40 990.45,504.24 985.60,506.86 981.47,508.25 978.09,508.42"/>
    </edge>
    <edge id=":n10_11" function="internal">
        <lane id=":n10_11_0" index="0" disallow="pedestrian" speed="3.65" length="4.67" shape="996.04,500.40 994.60,500.48 993.81,500.08 993.65,499.20 994.13,497.84"/>
    </edge>
    <edge id=":n10_12" function="internal">
        <lane id=":n10_12_0" index="0" disallow="pedestrian" speed="13.71" length="13.54" shape="978.55,505.26 981.30,505.05 984.81,503.75 989.09,501.34 990.84,500.12"/>
    </edge>
    <edge id=":n10_13" function="internal">
        <lane id=":n10_13_0" index="0" disallow="pedestrian" speed="13.89" length="19.68" shape="978.55,505.26 997.99,508.36"/>
    </edge>
    <edge id=":n10_14" function="internal">
        <lane id=":n10_14_0" index="0" disallow="pedestrian" speed="9.99" length="3.18" shape="978.55,505.26 981.54,506.34"/>
    </edge>
    <edge id=":n10_15" function="internal">
        <lane id=":n10_15_0" index="0" disallow="pedestrian" speed="3.65" length="1.44" shape="978.55,505.26 979.62,506.22"/>
    </edge>
    <edge id=":n10_19" function="internal">
        <lane id=":n10_19_0" index="0" disallow="pedestrian" speed="13.71" length="4.00" shape="990.84,500.12 994.13,497.84"/>
    </edge>
    <edge id=":n10_20" function="internal">
        <lane id=":n10_20_0" index="0" disallow="pedestrian" speed="9.99" length="12.54" shape="981.54,506.34 984.08,508.64 986.16,512.17 987.79,516.91"/>
    </edge>
    <edge id=":n10_21" function="internal">
        <lane id=":n10_21_0" index="0" disallow="pedestrian" speed="3.65" length="3.23" shape="979.62,506.22 979.90,507.07 979.39,507.81 978.09,508.42"/>
    </edge>
    <edge id=":n10_c0" function="crossing" crossingEdges="edge_78 edge_79">
        <lane id=":n10_c0_0" index="0" allow="pedestrian" speed="2.78" length="6.40" width="4.00" shape="988.83,514.57 982.64,516.20"/>
    </edge>
    <edge id=":n10_c1" function="crossing" crossingEdges="edge_182 edge_183">
        <lane id=":n10_c1_0" index="0" allow="pedestrian" speed="2.78" length="6.40" width="4.00" shape="996.27,506.46 995.23,512.77"/>
    </edge>
    <edge id=":n10_c2" function="crossing" crossingEdges="edge_55 edge_54">
        <lane id=":n10_c2_0" index="0" allow="pedestrian" speed="2.78" length="6.40" width="4.00" shape="991.57,497.75 995.40,502.88"/>
    </edge>
    <edge id=":n10_c3" function="crossing" crossingEdges="edge_181 edge_180">
        <lane id=":n10_c3_0" index="0" allow="pedestrian" speed="2.78" length="6.40" width="4.00" shape="979.83,510.30 980.76,503.96"/>
    </edge>
    <edge id=":n10_w0" function="walkingarea">
        <lane id=":n10_w0_0" index="0" allow="pedestrian" speed="2.78" length="5.87" width="4.00" shape="977.86,510.01 977.56,511.98 981.21,518.64 983.15,518.13 982.44,515.78 981.67,513.83 980.82,512.28 979.90,511.12 978.92,510.37"/>
    </edge>
    <edge id=":n10_w1" function="walkingarea">
        <lane id=":n10_w1_0" index="0" allow="pedestrian" speed="2.78" length="5.41" width="4.00" shape="989.34,516.50 991.27,516.00 996.88,515.07 997.21,513.10 994.44,512.77 992.26,512.80 990.66,513.19 989.64,513.94 989.20,515.04"/>
    </edge>
    <edge id=":n10_w2" function="walkingarea">
        <lane id=":n10_w2_0" index="0" allow="pedestrian" speed="2.78" length="3.32" width="4.00" shape="998.25,506.78 998.57,504.81 998.20,503.29 997.00,501.68 995.55,502.94 994.76,504.03 994.63,504.96 995.17,505.73 996.38,506.34"/>
    </edge>
    <edge id=":n10_w3" function="walkingarea">
        <lane id=":n10_w3_0" index="0" allow="pedestrian" speed="2.78" length="10.03" width="4.00" shape="993.17,496.56 991.97,494.95 979.08,501.69 978.79,503.67 980.31,503.64 982.19,503.15 984.41,502.19 986.99,500.78 989.90,498.90"/>
    </edge>
    <edge id=":n11_0" function="internal">
        <lane id=":n11_0_0" index="0" disallow="pedestrian" speed="13.89" length="26.56" shape="-105.89,1078.56 -106.97,1071.84 -106.33,1065.63 -104.72,1059.39 -102.95,1052.55"/>
    </edge>
    <edge id=":n11_1" function="internal">
        <lane id=":n11_1_0" index="0" disallow="pedestrian" speed="13.59" length="3.29" shape="-105.89,1078.56 -105.73,1075.27"/>
    </edge>
    <edge id=":n11_2" function="internal">
        <lane id=":n11_2_0" index="0" disallow="pedestrian" speed="13.59" length="3.29" shape="-105.89,1078.56 -105.73,1075.27"/>
    </edge>
    <edge id=":n11_3" function="internal">
        <lane id=":n11_3_0" index="0" disallow="pedestrian" speed="3.65" length="1.44" shape="-105.89,1078.56 -105.48,1077.17"/>
    </edge>
    <edge id=":n11_20" function="internal">
        <lane id=":n11_20_0" index="0" disallow="pedestrian" speed="13.59" length="22.63" shape="-105.73,1075.27 -105.72,1075.08 -103.48,1070.31 -99.15,1064.27 -92.74,1056.95"/>
    </edge>
    <edge id=":n11_21" function="internal">
        <lane id=":n11_21_0" index="0" disallow="pedestrian" speed="13.59" length="22.63" shape="-105.73,1075.27 -105.72,1075.08 -103.48,1070.31 -99.15,1064.27 -92.74,1056.95"/>
    </edge>
    <edge id=":n11_22" function="internal">
        <lane id=":n11_22_0" index="0" disallow="pedestrian" speed="3.65" length="3.23" shape="-105.48,1077.17 -104.83,1076.56 -103.95,1076.70 -102.83,1077.61"/>
    </edge>
    <edge id=":n11_4" function="internal">
        <lane id=":n11_4_0" index="0" disallow="pedestrian" speed="12.73" length="22.66" shape="-90.40,1059.14 -96.29,1065.75 -100.33,1071.04 -102.51,1074.99 -102.83,1077.61"/>
    </edge>
    <edge id=":n11_5" function="internal">
        <lane id=":n11_5_0" index="0" disallow="pedestrian" speed="7.04" length="19.25" shape="-90.40,1059.14 -94.87,1061.61 -99.32,1060.88 -102.45,1057.63 -102.95,1052.55"/>
    </edge>
    <edge id=":n11_6" function="internal">
        <lane id=":n11_6_0" index="0" disallow="pedestrian" speed="3.24" length="3.20" shape="-90.40,1059.14 -92.74,1056.95"/>
    </edge>
    <edge id=":n11_7" function="internal">
        <lane id=":n11_7_0" index="0" disallow="pedestrian" speed="3.65" length="4.67" shape="-90.40,1059.14 -91.81,1059.47 -92.66,1059.21 -92.97,1058.37 -92.74,1056.95"/>
    </edge>
    <edge id=":n11_8" function="internal">
        <lane id=":n11_8_0" index="0" disallow="pedestrian" speed="12.73" length="22.66" shape="-90.40,1059.14 -96.29,1065.75 -100.33,1071.04 -102.51,1074.99 -102.83,1077.61"/>
    </edge>
    <edge id=":n11_9" function="internal">
        <lane id=":n11_9_0" index="0" disallow="pedestrian" speed="7.04" length="19.25" shape="-90.40,1059.14 -94.87,1061.61 -99.32,1060.88 -102.45,1057.63 -102.95,1052.55"/>
    </edge>
    <edge id=":n11_10" function="internal">
        <lane id=":n11_10_0" index="0" disallow="pedestrian" speed="3.65" length="4.67" shape="-90.40,1059.14 -91.81,1059.47 -92.66,1059.21 -92.97,1058.37 -92.74,1056.95"/>
    </edge>
    <edge id=":n11_11" function="internal">
        <lane id=":n11_11_0" index="0" disallow="pedestrian" speed="3.24" length="3.20" shape="-90.40,1059.14 -92.74,1056.95"/>
    </edge>
    <edge id=":n11_12" function="internal">
        <lane id=":n11_12_0" index="0" disallow="pedestrian" speed="6.66" length="2.30" shape="-99.82,1053.23 -100.13,1055.51"/>
    </edge>
    <edge id=":n11_13" function="internal">
        <lane id=":n11_13_0" index="0" disallow="pedestrian" speed="6.66" length="2.30" shape="-99.82,1053.23 -100.13,1055.51"/>
    </edge>
    <edge id=":n11_14" function="internal">
        <lane id=":n11_14_0" index="0" disallow="pedestrian" speed="13.89" length="24.98" shape="-99.82,1053.23 -101.61,1059.82 -103.23,1065.50 -103.91,1071.15 -102.83,1077.61"/>
    </edge>
    <edge id=":n11_15" function="internal">
        <lane id=":n11_15_0" index="0" disallow="pedestrian" speed="3.65" length="1.44" shape="-99.82,1053.23 -100.86,1054.23"/>
    </edge>
    <edge id=":n11_23" function="internal">
        <lane id=":n11_23_0" index="0" disallow="pedestrian" speed="6.66" length="14.71" shape="-100.13,1055.51 -100.59,1058.98 -99.66,1061.52 -97.04,1060.84 -92.74,1056.95"/>
    </edge>
    <edge id=":n11_24" function="internal">
        <lane id=":n11_24_0" index="0" disallow="pedestrian" speed="6.66" length="14.71" shape="-100.13,1055.51 -100.59,1058.98 -99.66,1061.52 -97.04,1060.84 -92.74,1056.95"/>
    </edge>
    <edge id=":n11_25" function="internal">
        <lane id=":n11_25_0" index="0" disallow="pedestrian" speed="3.65" length="3.23" shape="-100.86,1054.23 -101.73,1054.45 -102.42,1053.89 -102.95,1052.55"/>
    </edge>
    <edge id=":n11_16" function="internal">
        <lane id=":n11_16_0" index="0" disallow="pedestrian" speed="10.61" length="22.55" shape="-113.29,1071.29 -110.32,1070.25 -107.62,1066.77 -105.16,1060.87 -102.95,1052.55"/>
    </edge>
    <edge id=":n11_17" function="internal">
        <lane id=":n11_17_0" index="0" disallow="pedestrian" speed="13.89" length="25.57" shape="-113.29,1071.29 -109.46,1070.53 -104.76,1067.89 -99.18,1063.36 -92.74,1056.95"/>
    </edge>
    <edge id=":n11_18" function="internal">
        <lane id=":n11_18_0" index="0" disallow="pedestrian" speed="13.89" length="25.57" shape="-113.29,1071.29 -109.46,1070.53 -104.76,1067.89 -99.18,1063.36 -92.74,1056.95"/>
    </edge>
    <edge id=":n11_19" function="internal">
        <lane id=":n11_19_0" index="0" disallow="pedestrian" speed="8.91" length="13.04" shape="-113.29,1071.29 -109.39,1071.86 -106.35,1073.10 -104.16,1075.02 -102.83,1077.61"/>
    </edge>
    <edge id=":n11_c0" function="crossing" crossingEdges="edge_131 edge_130">
        <lane id=":n11_c0_0" index="0" allow="pedestrian" speed="2.78" length="6.40" width="4.00" shape="-101.89,1075.23 -108.01,1077.12"/>
    </edge>
    <edge id=":n11_c1" function="crossing" crossingEdges="edge_1">
        <lane id=":n11_c1_0" index="0" allow="pedestrian" speed="2.78" length="3.20" width="4.00" shape="-92.94,1059.50 -90.60,1061.69"/>
    </edge>
    <edge id=":n11_c2" function="crossing" crossingEdges="edge_0 edge_23">
        <lane id=":n11_c2_0" index="0" allow="pedestrian" speed="2.78" length="6.40" width="4.00" shape="-95.27,1057.32 -90.60,1061.69"/>
    </edge>
    <edge id=":n11_c3" function="crossing" crossingEdges="edge_22">
        <lane id=":n11_c3_0" index="0" allow="pedestrian" speed="2.78" length="3.20" width="4.00" shape="-95.27,1057.32 -92.94,1059.50"/>
    </edge>
    <edge id=":n11_c4" function="crossing" crossingEdges="edge_110 edge_111">
        <lane id=":n11_c4_0" index="0" allow="pedestrian" speed="2.78" length="6.40" width="4.00" shape="-104.94,1054.16 -98.69,1055.52"/>
    </edge>
    <edge id=":n11_w0" function="walkingarea">
        <lane id=":n11_w0_0" index="0" allow="pedestrian" speed="2.78" length="2.24" width="4.00" shape="-109.33,1079.62 -107.42,1079.03 -108.09,1077.21 -108.89,1075.72 -109.82,1074.54 -110.87,1073.67 -112.06,1073.12"/>
    </edge>
    <edge id=":n11_w1" function="walkingarea">
        <lane id=":n11_w1_0" index="0" allow="pedestrian" speed="2.78" length="13.26" width="4.00" shape="-101.30,1077.14 -99.39,1076.55 -87.77,1061.60 -89.23,1060.23 -93.18,1064.56 -96.35,1068.28 -98.75,1071.40 -100.38,1073.92 -101.23,1075.83"/>
    </edge>
    <edge id=":n11_w2" function="walkingarea">
        <lane id=":n11_w2_0" index="0" allow="pedestrian" speed="2.78" length="3.36" width="4.00" shape="-94.30,1060.96 -91.57,1058.04 -87.77,1061.60 -89.23,1060.23 -91.97,1063.15"/>
    </edge>
    <edge id=":n11_w3" function="walkingarea">
        <lane id=":n11_w3_0" index="0" allow="pedestrian" speed="2.78" length="3.36" width="4.00" shape="-96.64,1058.78 -93.91,1055.86 -95.37,1054.49 -91.57,1058.04 -94.30,1060.96"/>
    </edge>
    <edge id=":n11_w4" function="walkingarea">
        <lane id=":n11_w4_0" index="0" allow="pedestrian" speed="2.78" length="3.24" width="4.00" shape="-93.91,1055.86 -95.37,1054.49 -96.31,1054.00 -98.26,1053.57 -98.14,1054.38 -97.54,1055.14 -96.63,1055.76 -95.61,1056.15 -94.64,1056.21"/>
    </edge>
    <edge id=":n11_w5" function="walkingarea">
        <lane id=":n11_w5_0" index="0" allow="pedestrian" speed="2.78" length="2.24" width="4.00" shape="-104.51,1052.20 -106.47,1051.78 -111.62,1069.28 -110.10,1067.87 -108.62,1065.45 -107.20,1062.04 -105.83,1057.62"/>
    </edge>
    <edge id=":n12_0" function="internal">
        <lane id=":n12_0_0" index="0" disallow="pedestrian" speed="6.60" length="16.54" shape="219.35,503.66 217.58,498.34 215.65,496.50 213.57,498.16 211.33,503.31"/>
    </edge>
    <edge id=":n12_1" function="internal">
        <lane id=":n12_1_0" index="0" disallow="pedestrian" speed="12.40" length="25.33" shape="219.35,503.66 217.52,494.40 216.99,487.25 217.76,482.19 219.82,479.24"/>
    </edge>
    <edge id=":n12_2" function="internal">
        <lane id=":n12_2_0" index="0" disallow="pedestrian" speed="3.24" length="3.20" shape="219.35,503.66 222.46,502.91"/>
    </edge>
    <edge id=":n12_3" function="internal">
        <lane id=":n12_3_0" index="0" disallow="pedestrian" speed="3.65" length="4.67" shape="219.35,503.66 219.85,502.31 220.53,501.73 221.40,501.93 222.46,502.91"/>
    </edge>
    <edge id=":n12_4" function="internal">
        <lane id=":n12_4_0" index="0" disallow="pedestrian" speed="6.60" length="16.54" shape="219.35,503.66 217.58,498.34 215.65,496.50 213.57,498.16 211.33,503.31"/>
    </edge>
    <edge id=":n12_5" function="internal">
        <lane id=":n12_5_0" index="0" disallow="pedestrian" speed="12.40" length="25.33" shape="219.35,503.66 217.52,494.40 216.99,487.25 217.76,482.19 219.82,479.24"/>
    </edge>
    <edge id=":n12_6" function="internal">
        <lane id=":n12_6_0" index="0" disallow="pedestrian" speed="3.65" length="4.67" shape="219.35,503.66 219.85,502.31 220.53,501.73 221.40,501.93 222.46,502.91"/>
    </edge>
    <edge id=":n12_7" function="internal">
        <lane id=":n12_7_0" index="0" disallow="pedestrian" speed="3.24" length="3.20" shape="219.35,503.66 222.46,502.91"/>
    </edge>
    <edge id=":n12_8" function="internal">
        <lane id=":n12_8_0" index="0" disallow="pedestrian" speed="11.49" length="17.63" shape="221.66,481.86 220.35,484.13 220.04,488.40 220.75,494.66 221.65,499.00"/>
    </edge>
    <edge id=":n12_9" function="internal">
        <lane id=":n12_9_0" index="0" disallow="pedestrian" speed="11.49" length="17.63" shape="221.66,481.86 220.35,484.13 220.04,488.40 220.75,494.66 221.65,499.00"/>
    </edge>
    <edge id=":n12_10" function="internal">
        <lane id=":n12_10_0" index="0" disallow="pedestrian" speed="13.89" length="24.42" shape="221.66,481.86 217.04,486.30 214.62,491.18 213.14,496.77 211.33,503.31"/>
    </edge>
    <edge id=":n12_11" function="internal">
        <lane id=":n12_11_0" index="0" disallow="pedestrian" speed="3.65" length="1.29" shape="221.66,481.86 220.37,481.89"/>
    </edge>
    <edge id=":n12_16" function="internal">
        <lane id=":n12_16_0" index="0" disallow="pedestrian" speed="11.49" length="4.00" shape="221.65,499.00 222.46,502.91"/>
    </edge>
    <edge id=":n12_17" function="internal">
        <lane id=":n12_17_0" index="0" disallow="pedestrian" speed="11.49" length="4.00" shape="221.65,499.00 222.46,502.91"/>
    </edge>
    <edge id=":n12_18" function="internal">
        <lane id=":n12_18_0" index="0" disallow="pedestrian" speed="3.65" length="3.39" shape="220.37,481.89 220.22,481.89 219.43,481.47 219.30,480.58 219.82,479.24"/>
    </edge>
    <edge id=":n12_12" function="internal">
        <lane id=":n12_12_0" index="0" disallow="pedestrian" speed="13.89" length="26.34" shape="208.30,502.29 210.29,495.50 212.18,489.36 215.02,483.93 219.82,479.24"/>
    </edge>
    <edge id=":n12_13" function="internal">
        <lane id=":n12_13_0" index="0" disallow="pedestrian" speed="7.07" length="2.13" shape="208.30,502.29 209.56,500.57"/>
    </edge>
    <edge id=":n12_14" function="internal">
        <lane id=":n12_14_0" index="0" disallow="pedestrian" speed="7.07" length="2.13" shape="208.30,502.29 209.56,500.57"/>
    </edge>
    <edge id=":n12_15" function="internal">
        <lane id=":n12_15_0" index="0" disallow="pedestrian" speed="3.65" length="1.44" shape="208.30,502.29 209.44,501.41"/>
    </edge>
    <edge id=":n12_19" function="internal">
        <lane id=":n12_19_0" index="0" disallow="pedestrian" speed="7.07" length="17.07" shape="209.56,500.57 211.31,498.16 215.63,496.93 219.83,498.54 222.46,502.91"/>
    </edge>
    <edge id=":n12_20" function="internal">
        <lane id=":n12_20_0" index="0" disallow="pedestrian" speed="7.07" length="17.07" shape="209.56,500.57 211.31,498.16 215.63,496.93 219.83,498.54 222.46,502.91"/>
    </edge>
    <edge id=":n12_21" function="internal">
        <lane id=":n12_21_0" index="0" disallow="pedestrian" speed="3.65" length="3.23" shape="209.44,501.41 210.33,501.28 210.96,501.92 211.33,503.31"/>
    </edge>